opendss/LVTestCase/data/PV/PV_719.txt
New generator.m_gen13 Phases=1 Bus1=276.2 kV=0.23 kW=1 PF=0.95 Yearly=NM_Shape_88
New generator.m_gen1 Phases=1 Bus1=34.1 kV=0.23 kW=1 PF=0.95 Yearly=PV_Shape_20
New generator.m_gen12 Phases=1 Bus1=264.3 kV=0.23 kW=1 PF=0.95 Yearly=NM_Shape_58
New generator.m_gen48 Phases=1 Bus1=860.1 kV=0.23 kW=1 PF=0.95 Yearly=NM_Shape_24
New generator.m_gen53 Phases=1 Bus1=899.2 kV=0.23 kW=1 PF=0.95 Yearly=PV_Shape_35
New generator.m_gen54 Phases=1 Bus1=900.1 kV=0.23 kW=1 PF=0.95 Yearly=NM_Shape_34
New generator.m_gen55 Phases=1 Bus1=906.1 kV=0.23 kW=1 PF=0.95 Yearly=NM_Shape_94
New generator.m_gen29 Phases=1 Bus1=562.1 kV=0.23 kW=1 PF=0.95 Yearly=PV_Shape_61
New generator.m_gen14 Phases=1 Bus1=289.1 kV=0.23 kW=1 PF=0.95 Yearly=NM_Shape_19
New generator.m_gen7 Phases=1 Bus1=178.2 kV=0.23 kW=1 PF=0.95 Yearly=NM_Shape_36
New generator.m_gen35 Phases=1 Bus1=639.2 kV=0.23 kW=1 PF=0.95 Yearly=NM_Shape_68
New generator.m_gen2 Phases=1 Bus1=47.2 kV=0.23 kW=1 PF=0.95 Yearly=NM_Shape_9
New generator.m_gen11 Phases=1 Bus1=249.2 kV=0.23 kW=1 PF=0.95 Yearly=NM_Shape_44
New generator.m_gen6 Phases=1 Bus1=83.2 kV=0.23 kW=1 PF=0.95 Yearly=NM_Shape_139
New generator.m_gen20 Phases=1 Bus1=349.1 kV=0.23 kW=1 PF=0.95 Yearly=PV_Shape_156
New generator.m_gen50 Phases=1 Bus1=886.2 kV=0.23 kW=1 PF=0.95 Yearly=NM_Shape_110
New generator.m_gen25 Phases=1 Bus1=502.1 kV=0.23 kW=1 PF=0.95 Yearly=NM_Shape_10
New generator.m_gen43 Phases=1 Bus1=780.3 kV=0.23 kW=1 PF=0.95 Yearly=NM_Shape_120
New generator.m_gen10 Phases=1 Bus1=248.2 kV=0.23 kW=1 PF=0.95 Yearly=NM_Shape_23
New generator.m_gen36 Phases=1 Bus1=676.2 kV=0.23 kW=1 PF=0.95 Yearly=PV_Shape_50
New generator.m_gen15 Phases=1 Bus1=314.2 kV=0.23 kW=1 PF=0.95 Yearly=PV_Shape_16
New generator.m_gen27 Phases=1 Bus1=539.3 kV=0.23 kW=1 PF=0.95 Yearly=PV_Shape_59
New generator.m_gen26 Phases=1 Bus1=522.2 kV=0.23 kW=1 PF=0.95 Yearly=PV_Shape_25
New generator.m_gen42 Phases=1 Bus1=778.3 kV=0.23 kW=1 PF=0.95 Yearly=NM_Shape_63
New generator.m_gen16 Phases=1 Bus1=320.3 kV=0.23 kW=1 PF=0.95 Yearly=PV_Shape_145
New generator.m_gen3 Phases=1 Bus1=70.1 kV=0.23 kW=1 PF=0.95 Yearly=PV_Shape_87
New generator.m_gen49 Phases=1 Bus1=861.1 kV=0.23 kW=1 PF=0.95 Yearly=NM_Shape_154
New generator.m_gen28 Phases=1 Bus1=556.3 kV=0.23 kW=1 PF=0.95 Yearly=NM_Shape_15
New generator.m_gen33 Phases=1 Bus1=619.3 kV=0.23 kW=1 PF=0.95 Yearly=NM_Shape_149
New generator.m_gen41 Phases=1 Bus1=755.2 kV=0.23 kW=1 PF=0.95 Yearly=NM_Shape_1
New generator.m_gen40 Phases=1 Bus1=702.2 kV=0.23 kW=1 PF=0.95 Yearly=PV_Shape_105
New generator.m_gen34 Phases=1 Bus1=629.1 kV=0.23 kW=1 PF=0.95 Yearly=PV_Shape_60
New generator.m_gen8 Phases=1 Bus1=208.3 kV=0.23 kW=1 PF=0.95 Yearly=NM_Shape_144
New generator.m_gen31 Phases=1 Bus1=611.1 kV=0.23 kW=1 PF=0.95 Yearly=NM_Shape_78
New generator.m_gen17 Phases=1 Bus1=327.3 kV=0.23 kW=1 PF=0.95 Yearly=NM_Shape_125
New generator.m_gen32 Phases=1 Bus1=614.3 kV=0.23 kW=1 PF=0.95 Yearly=NM_Shape_69
New generator.m_gen39 Phases=1 Bus1=701.3 kV=0.23 kW=1 PF=0.95 Yearly=NM_Shape_17
New generator.m_gen47 Phases=1 Bus1=835.3 kV=0.23 kW=1 PF=0.95 Yearly=NM_Shape_32
